$DATA1 SOURCE='HSPICE' VERSION='L-2016.06-SP1 win64' PARAM_COUNT=0
.TITLE ''
 tpdr             tpdf             tpd              trise           
 tfall            temper           alter#          
    failed           failed           failed           failed       
    failed          25.0000        1               
